dss/import/hidra-caso1/Transformer_caso1_Med2024_30.dss
New "Transformer.TR_300162" Tap=1.075 Buses=[3819265_p_1.1.2.3, 3819265_p_2.1.2.3] XfmrCode=160_10_3 
New "Transformer.TR_300165" Tap=1.075 Buses=[3810140_p_1.1.2.3, 3810140_p_2.1.2.3] XfmrCode=160_10_3 
New "Transformer.TR_300166" Tap=1.075 Buses=[3810149_p_1.1.2.3, 3810149_p_2.1.2.3] XfmrCode=160_10_3 
New "Transformer.TR_300167" Tap=1.075 Buses=[3838518_p_1.1.2.3, 3838518_p_2.1.2.3] XfmrCode=1000_10_3 
New "Transformer.TR_300168" Tap=1.075 Buses=[3747428_p_1.1.2.3, 3747428_p_2.1.2.3] XfmrCode=75_10_3 
New "Transformer.TR_300170" Tap=1.075 Buses=[3806703_p_1.1.2.3, 3806703_p_2.1.2.3] XfmrCode=5000_10_3 
New "Transformer.TR_300171" Tap=1.075 Buses=[3806706_p_1.1.2.3, 3806706_p_2.1.2.3] XfmrCode=50_10_3 
New "Transformer.TR_300180" Tap=1.075 Buses=[3812590_p_1.1.2.3, 3812590_p_2.1.2.3] XfmrCode=100_10_3 
New "Transformer.TR_300181" Tap=1.075 Buses=[3806721_p_1.1.2.3, 3806721_p_2.1.2.3] XfmrCode=50_10_3 
New "Transformer.TR_300183" Tap=1.075 Buses=[3823263_p_1.1.2.3, 3823263_p_2.1.2.3] XfmrCode=50_10_3 
New "Transformer.TR_300185" Tap=1.075 Buses=[3808184_p_1.1.2.3, 3808184_p_2.1.2.3] XfmrCode=75_10_3 
New "Transformer.TR_300188" Tap=1.075 Buses=[4002335_p_1.1.2.3, 4002335_p_2.1.2.3] XfmrCode=160_10_3 
New "Transformer.TR_300189" Tap=1.075 Buses=[14070073_p_1.1.2.3, 14070073_p_2.1.2.3] XfmrCode=5000_10_3 
New "Transformer.TR_300190" Tap=1.075 Buses=[4002336_p_1.1.2.3, 4002336_p_2.1.2.3] XfmrCode=100_10_3 
New "Transformer.TR_300191" Tap=1.075 Buses=[3806768_p_1.1.2.3, 3806768_p_2.1.2.3] XfmrCode=80_10_3 
New "Transformer.TR_300192" Tap=1.075 Buses=[3806374_p_1.1.2.3, 3806374_p_2.1.2.3] XfmrCode=75_10_3 
New "Transformer.TR_300193" Tap=1.075 Buses=[3817748_p_1.1.2.3, 3817748_p_2.1.2.3] XfmrCode=125_10_3 
New "Transformer.TR_300194" Tap=1.075 Buses=[3806239_p_1.1.2.3, 3806239_p_2.1.2.3] XfmrCode=50_10_3 
New "Transformer.TR_300200" Tap=1.075 Buses=[3822095_p_1.1.2.3, 3822095_p_2.1.2.3] XfmrCode=75_10_3 
New "Transformer.TR_300204" Tap=1.075 Buses=[3806259_p_1.1.2.3, 3806259_p_2.1.2.3] XfmrCode=40_10_3 
New "Transformer.TR_300215" Tap=1.075 Buses=[3808226_p_1.1.2.3, 3808226_p_2.1.2.3] XfmrCode=37_5_10_3 
New "Transformer.TR_300217" Tap=1.075 Buses=[3832430_p_1.1.2.3, 3832430_p_2.1.2.3] XfmrCode=37_5_10_3 
New "Transformer.TR_300220" Tap=1.075 Buses=[3837814_p_1.1.2.3, 3837814_p_2.1.2.3] XfmrCode=100_10_3 
New "Transformer.TR_300221" Tap=1.075 Buses=[3812828_p_1.1.2.3, 3812828_p_2.1.2.3] XfmrCode=37_5_10_3 
New "Transformer.TR_300225" Tap=1.075 Buses=[3806227_p_1.1.2.3, 3806227_p_2.1.2.3] XfmrCode=125_10_3 
New "Transformer.TR_300226" Tap=1.075 Buses=[3833751_p_1.1.2.3, 3833751_p_2.1.2.3] XfmrCode=100_10_3 
New "Transformer.TR_300227" Tap=1.075 Buses=[4002387_p_1.1.2.3, 4002387_p_2.1.2.3] XfmrCode=50_10_3 
New "Transformer.TR_300231" Tap=1.075 Buses=[3807864_p_1.1.2.3, 3807864_p_2.1.2.3] XfmrCode=160_10_3 
New "Transformer.TR_300244" Tap=1.075 Buses=[3823306_p_1.1.2.3, 3823306_p_2.1.2.3] XfmrCode=160_10_3 
New "Transformer.TR_300245" Tap=1.075 Buses=[4002388_p_1.1.2.3, 4002388_p_2.1.2.3] XfmrCode=100_10_3 
New "Transformer.TR_300246" Tap=1.075 Buses=[3808444_p_1.1.2.3, 3808444_p_2.1.2.3] XfmrCode=50_10_3 
New "Transformer.TR_300247" Tap=1.075 Buses=[3808199_p_1.1.2.3, 3808199_p_2.1.2.3] XfmrCode=400_10_3 
New "Transformer.TR_301698" Tap=1.075 Buses=[3812380_p_1.1.2.3, 3812380_p_2.1.2.3] XfmrCode=50_10_3 
New "Transformer.TR_301733" Tap=1.075 Buses=[3747858_p_1.1.2.3, 3747858_p_2.1.2.3] XfmrCode=100_10_3 
New "Transformer.TR_301774" Tap=1.075 Buses=[3832429_p_1.1.2.3, 3832429_p_2.1.2.3] XfmrCode=75_10_3 
New "Transformer.TR_301775" Tap=1.075 Buses=[3813328_p_1.1.2.3, 3813328_p_2.1.2.3] XfmrCode=40_10_3 
New "Transformer.TR_301776" Tap=1.075 Buses=[3813276_p_1.1.2.3, 3813276_p_2.1.2.3] XfmrCode=50_10_3 
New "Transformer.TR_301777" Tap=1.075 Buses=[3810166_p_1.1.2.3, 3810166_p_2.1.2.3] XfmrCode=37_5_10_3 
New "Transformer.TR_301778" Tap=1.075 Buses=[3813283_p_1.1.2.3, 3813283_p_2.1.2.3] XfmrCode=50_10_3 
New "Transformer.TR_301858" Tap=1.075 Buses=[3829947_p_1.1.2.3, 3829947_p_2.1.2.3] XfmrCode=50_10_3 
New "Transformer.TR_301881" Tap=1.075 Buses=[3844387_p_1.1.2.3, 3844387_p_2.1.2.3] XfmrCode=50_10_3 
New "Transformer.TR_301908" Tap=1.075 Buses=[4002471_p_1.1.2.3, 4002471_p_2.1.2.3] XfmrCode=160_10_3 
New "Transformer.TR_301938" Tap=1.075 Buses=[3747406_p_1.1.2.3, 3747406_p_2.1.2.3] XfmrCode=75_10_3 
New "Transformer.TR_302313" Tap=1.075 Buses=[3817188_p_1.1.2.3, 3817188_p_2.1.2.3] XfmrCode=200_10_3 
New "Transformer.TR_302318" Tap=1.075 Buses=[3832423_p_1.1.2.3, 3832423_p_2.1.2.3] XfmrCode=50_10_3 
New "Transformer.TR_302407" Tap=1.075 Buses=[3817921_p_1.1.2.3, 3817921_p_2.1.2.3] XfmrCode=125_10_3 
New "Transformer.TR_302434" Tap=1.075 Buses=[4002623_p_1.1.2.3, 4002623_p_2.1.2.3] XfmrCode=125_10_3 
New "Transformer.TR_302565" Tap=1.075 Buses=[13602024_p_1.1.2.3, 13602024_p_2.1.2.3] XfmrCode=37_5_10_3 
New "Transformer.TR_302566" Tap=1.075 Buses=[13981349_p_1.1.2.3, 13981349_p_2.1.2.3] XfmrCode=10_10_3 
New "Transformer.TR_302567" Tap=1.075 Buses=[3819054_p_1.1.2.3, 3819054_p_2.1.2.3] XfmrCode=10_10_3 
New "Transformer.TR_302568" Tap=1.075 Buses=[3819053_p_1.1.2.3, 3819053_p_2.1.2.3] XfmrCode=160_10_3 
New "Transformer.TR_302569" Tap=1.075 Buses=[3819057_p_1.1.2.3, 3819057_p_2.1.2.3] XfmrCode=10_10_3 
New "Transformer.TR_302570" Tap=1.075 Buses=[3832428_p_1.1.2.3, 3832428_p_2.1.2.3] XfmrCode=5000_10_3 
New "Transformer.TR_302579" Tap=1.075 Buses=[13981284_p_1.1.2.3, 13981284_p_2.1.2.3] XfmrCode=37_5_10_3 
New "Transformer.TR_302581" Tap=1.075 Buses=[3819161_p_1.1.2.3, 3819161_p_2.1.2.3] XfmrCode=100_10_3 
New "Transformer.TR_302631" Tap=1.075 Buses=[3819554_p_1.1.2.3, 3819554_p_2.1.2.3] XfmrCode=75_10_3 
New "Transformer.TR_302647" Tap=1.075 Buses=[3819652_p_1.1.2.3, 3819652_p_2.1.2.3] XfmrCode=75_10_3 
New "Transformer.TR_302676" Tap=1.075 Buses=[3819909_p_1.1.2.3, 3819909_p_2.1.2.3] XfmrCode=50_10_3 
New "Transformer.TR_302684" Tap=1.075 Buses=[3819925_p_1.1.2.3, 3819925_p_2.1.2.3] XfmrCode=75_10_3 
New "Transformer.TR_302866" Tap=1.075 Buses=[3821714_p_1.1.2.3, 3821714_p_2.1.2.3] XfmrCode=100_10_3 
New "Transformer.TR_302871" Tap=1.075 Buses=[3821745_p_1.1.2.3, 3821745_p_2.1.2.3] XfmrCode=50_10_3 
New "Transformer.TR_302943" Tap=1.075 Buses=[3822157_p_1.1.2.3, 3822157_p_2.1.2.3] XfmrCode=250_10_3 
New "Transformer.TR_303004" Tap=1.075 Buses=[3843802_p_1.1.2.3, 3843802_p_2.1.2.3] XfmrCode=75_10_3 
New "Transformer.TR_303005" Tap=1.075 Buses=[3822777_p_1.1.2.3, 3822777_p_2.1.2.3] XfmrCode=75_10_3 
New "Transformer.TR_303009" Tap=1.075 Buses=[4002761_p_1.1.2.3, 4002761_p_2.1.2.3] XfmrCode=50_10_3 
New "Transformer.TR_303079" Tap=1.075 Buses=[3823305_p_1.1.2.3, 3823305_p_2.1.2.3] XfmrCode=5000_10_3 
New "Transformer.TR_303083" Tap=1.075 Buses=[3823327_p_1.1.2.3, 3823327_p_2.1.2.3] XfmrCode=50_10_3 
New "Transformer.TR_303092" Tap=1.075 Buses=[3823362_p_1.1.2.3, 3823362_p_2.1.2.3] XfmrCode=50_10_3 
New "Transformer.TR_303131" Tap=1.075 Buses=[3823641_p_1.1.2.3, 3823641_p_2.1.2.3] XfmrCode=75_10_3 
New "Transformer.TR_303193" Tap=1.075 Buses=[3824296_p_1.1.2.3, 3824296_p_2.1.2.3] XfmrCode=200_10_3 
New "Transformer.TR_303316" Tap=1.075 Buses=[3825272_p_1.1.2.3, 3825272_p_2.1.2.3] XfmrCode=160_10_3 
New "Transformer.TR_303731" Tap=1.075 Buses=[3843796_p_1.1.2.3, 3843796_p_2.1.2.3] XfmrCode=100_10_3 
New "Transformer.TR_303919" Tap=1.075 Buses=[3829951_p_1.1.2.3, 3829951_p_2.1.2.3] XfmrCode=75_10_3 
New "Transformer.TR_304007" Tap=1.075 Buses=[3830690_p_1.1.2.3, 3830690_p_2.1.2.3] XfmrCode=75_10_3 
New "Transformer.TR_304122" Tap=1.075 Buses=[3843811_p_1.1.2.3, 3843811_p_2.1.2.3] XfmrCode=125_10_3 
New "Transformer.TR_304123" Tap=1.075 Buses=[3831406_p_1.1.2.3, 3831406_p_2.1.2.3] XfmrCode=125_10_3 
New "Transformer.TR_304124" Tap=1.075 Buses=[3831409_p_1.1.2.3, 3831409_p_2.1.2.3] XfmrCode=160_10_3 
New "Transformer.TR_304264" Tap=1.075 Buses=[3832353_p_1.1.2.3, 3832353_p_2.1.2.3] XfmrCode=250_10_3 
New "Transformer.TR_304431" Tap=1.075 Buses=[3833742_p_1.1.2.3, 3833742_p_2.1.2.3] XfmrCode=75_10_3 
New "Transformer.TR_304433" Tap=1.075 Buses=[3833749_p_1.1.2.3, 3833749_p_2.1.2.3] XfmrCode=25_10_3 
New "Transformer.TR_304434" Tap=1.075 Buses=[3833769_p_1.1.2.3, 3833769_p_2.1.2.3] XfmrCode=350_10_3 
New "Transformer.TR_304451" Tap=1.075 Buses=[3833877_p_1.1.2.3, 3833877_p_2.1.2.3] XfmrCode=37_5_10_3 
New "Transformer.TR_304491" Tap=1.075 Buses=[3834146_p_1.1.2.3, 3834146_p_2.1.2.3] XfmrCode=250_10_3 
New "Transformer.TR_304492" Tap=1.075 Buses=[3834151_p_1.1.2.3, 3834151_p_2.1.2.3] XfmrCode=160_10_3 
New "Transformer.TR_304554" Tap=1.075 Buses=[3834761_p_1.1.2.3, 3834761_p_2.1.2.3] XfmrCode=250_10_3 
New "Transformer.TR_304601" Tap=1.075 Buses=[3835138_p_1.1.2.3, 3835138_p_2.1.2.3] XfmrCode=25_10_3 
New "Transformer.TR_304632" Tap=1.075 Buses=[3835272_p_1.1.2.3, 3835272_p_2.1.2.3] XfmrCode=5000_10_3 
New "Transformer.TR_304766" Tap=1.075 Buses=[3836499_p_1.1.2.3, 3836499_p_2.1.2.3] XfmrCode=250_10_3 
New "Transformer.TR_304815" Tap=1.075 Buses=[3836995_p_1.1.2.3, 3836995_p_2.1.2.3] XfmrCode=75_10_3 
New "Transformer.TR_304884" Tap=1.075 Buses=[3837609_p_1.1.2.3, 3837609_p_2.1.2.3] XfmrCode=75_10_3 
New "Transformer.TR_304908" Tap=1.075 Buses=[3837992_p_1.1.2.3, 3837992_p_2.1.2.3] XfmrCode=100_10_3 
New "Transformer.TR_304909" Tap=1.075 Buses=[3837995_p_1.1.2.3, 3837995_p_2.1.2.3] XfmrCode=75_10_3 
New "Transformer.TR_305208" Tap=1.075 Buses=[3998784_p_1.1.2.3, 3998784_p_2.1.2.3] XfmrCode=75_10_3 
New "Transformer.TR_305246" Tap=1.075 Buses=[3999222_p_1.1.2.3, 3999222_p_2.1.2.3] XfmrCode=160_10_3 
New "Transformer.TR_314027" Tap=1.075 Buses=[3995136_p_1.1.2.3, 3995136_p_2.1.2.3] XfmrCode=100_10_3 
New "Transformer.TR_314088" Tap=1.075 Buses=[3997578_p_1.1.2.3, 3997578_p_2.1.2.3] XfmrCode=75_10_3 
New "Transformer.TR_314200" Tap=1.075 Buses=[14016095_p_1.1.2.3, 14016095_p_2.1.2.3] XfmrCode=160_10_3 
New "Transformer.TR_314201" Tap=1.075 Buses=[14016261_p_1.1.2.3, 14016261_p_2.1.2.3] XfmrCode=50_10_3 
New "Transformer.TR_314320" Tap=1.075 Buses=[16370837_p_1.1.2.3, 16370837_p_2.1.2.3] XfmrCode=1000_10_3 
New "Transformer.TR_314323" Tap=1.075 Buses=[3832397_p_1.1.2.3, 3832397_p_2.1.2.3] XfmrCode=50_10_3 
New "Transformer.TR_323119" Tap=1.075 Buses=[3806352_p_1.1.2.3, 3806352_p_2.1.2.3] XfmrCode=5000_10_3 
New "Transformer.TR_323409" Tap=1.075 Buses=[3805129_p_1.1.2.3, 3805129_p_2.1.2.3] XfmrCode=50_10_3 
New "Transformer.TR_323482" Tap=1.075 Buses=[3805226_p_1.1.2.3, 3805226_p_2.1.2.3] XfmrCode=160_10_3 
New "Transformer.TR_323501" Tap=1.075 Buses=[3819344_p_1.1.2.3, 3819344_p_2.1.2.3] XfmrCode=75_10_3 
New "Transformer.TR_327897" Tap=1.075 Buses=[3827627_p_1.1.2.3, 3827627_p_2.1.2.3] XfmrCode=5000_10_3 
