dss/import/hidra-caso1/Load_caso1_Med2024_30.dss
New "Load.300162" bus1=3819265_p_2.1.2.3 phases=3 conn=LL model=1 kV=0.4 Kw=250.05 kvar=0 daily=PC01_IndMin2024_30 Vminpu=0.9 Vmaxpu=1.1 
New "Load.300165" bus1=3810140_p_2.1.2.3 phases=3 conn=LL model=1 kV=0.4 Kw=76.164 kvar=0 daily=PC01_IndMin2024_30 Vminpu=0.9 Vmaxpu=1.1 
New "Load.300166" bus1=3810149_p_2.1.2.3 phases=3 conn=LL model=1 kV=0.4 Kw=84.115 kvar=0 daily=PC01_IndMin2024_30 Vminpu=0.9 Vmaxpu=1.1 
New "Load.300167" bus1=3838518_p_2.1.2.3 phases=3 conn=LL model=1 kV=0.4 Kw=25.465 kvar=0 daily=PC01_IndMin2024_30 Vminpu=0.9 Vmaxpu=1.1 
New "Load.300168" bus1=3747428_p_2.1.2.3 phases=3 conn=LL model=1 kV=0.4 Kw=18.205 kvar=0 daily=PC01_IndMin2024_30 Vminpu=0.9 Vmaxpu=1.1 
New "Load.300170" bus1=3806703_p_2.1.2.3 phases=3 conn=LL model=1 kV=0.4 Kw=3.226 kvar=0 daily=PC01_IndMin2024_30 Vminpu=0.9 Vmaxpu=1.1 
New "Load.300171" bus1=3806706_p_2.1.2.3 phases=3 conn=LL model=1 kV=0.4 Kw=260.532 kvar=0 daily=PC01_IndMin2024_30 Vminpu=0.9 Vmaxpu=1.1 
New "Load.300180" bus1=3812590_p_2.1.2.3 phases=3 conn=LL model=1 kV=0.4 Kw=46.321 kvar=0 daily=PC01_IndMin2024_30 Vminpu=0.9 Vmaxpu=1.1 
New "Load.300181" bus1=3806721_p_2.1.2.3 phases=3 conn=LL model=1 kV=0.4 Kw=23.967 kvar=0 daily=PC01_IndMin2024_30 Vminpu=0.9 Vmaxpu=1.1 
New "Load.300183" bus1=3823263_p_2.1.2.3 phases=3 conn=LL model=1 kV=0.4 Kw=11.407 kvar=0 daily=PC01_IndMin2024_30 Vminpu=0.9 Vmaxpu=1.1 
New "Load.300185" bus1=3808184_p_2.1.2.3 phases=3 conn=LL model=1 kV=0.4 Kw=136.202 kvar=0 daily=PC01_IndMin2024_30 Vminpu=0.9 Vmaxpu=1.1 
New "Load.300188" bus1=4002335_p_2.1.2.3 phases=3 conn=LL model=1 kV=0.4 Kw=17.399 kvar=0 daily=PC01_IndMin2024_30 Vminpu=0.9 Vmaxpu=1.1 
New "Load.300189" bus1=14070073_p_2.1.2.3 phases=3 conn=LL model=1 kV=0.4 Kw=4.839 kvar=0 daily=PC01_IndMin2024_30 Vminpu=0.9 Vmaxpu=1.1 
New "Load.300190" bus1=4002336_p_2.1.2.3 phases=3 conn=LL model=1 kV=0.4 Kw=6.913 kvar=0 daily=PC01_IndMin2024_30 Vminpu=0.9 Vmaxpu=1.1 
New "Load.300191" bus1=3806768_p_2.1.2.3 phases=3 conn=LL model=1 kV=0.4 Kw=0.0 kvar=0 daily=PC01_IndMin2024_30 Vminpu=0.9 Vmaxpu=1.1 
New "Load.300192" bus1=3806374_p_2.1.2.3 phases=3 conn=LL model=1 kV=0.4 Kw=0.0 kvar=0 daily=PC01_IndMin2024_30 Vminpu=0.9 Vmaxpu=1.1 
New "Load.300193" bus1=3817748_p_2.1.2.3 phases=3 conn=LL model=1 kV=0.4 Kw=52.659 kvar=0 daily=PC01_IndMin2024_30 Vminpu=0.9 Vmaxpu=1.1 
New "Load.300194" bus1=3806239_p_2.1.2.3 phases=3 conn=LL model=1 kV=0.4 Kw=0.0 kvar=0 daily=PC01_IndMin2024_30 Vminpu=0.9 Vmaxpu=1.1 
New "Load.300200" bus1=3822095_p_2.1.2.3 phases=3 conn=LL model=1 kV=0.4 Kw=103.359 kvar=0 daily=PC01_IndMin2024_30 Vminpu=0.9 Vmaxpu=1.1 
New "Load.300204" bus1=3806259_p_2.1.2.3 phases=3 conn=LL model=1 kV=0.4 Kw=0.0 kvar=0 daily=PC01_IndMin2024_30 Vminpu=0.9 Vmaxpu=1.1 
New "Load.300215" bus1=3808226_p_2.1.2.3 phases=3 conn=LL model=1 kV=0.4 Kw=18.206 kvar=0 daily=PC01_IndMin2024_30 Vminpu=0.9 Vmaxpu=1.1 
New "Load.300217" bus1=3832430_p_2.1.2.3 phases=3 conn=LL model=1 kV=0.4 Kw=14.172 kvar=0 daily=PC01_IndMin2024_30 Vminpu=0.9 Vmaxpu=1.1 
New "Load.300220" bus1=3837814_p_2.1.2.3 phases=3 conn=LL model=1 kV=0.4 Kw=0.0 kvar=0 daily=PC01_IndMin2024_30 Vminpu=0.9 Vmaxpu=1.1 
New "Load.300221" bus1=3812828_p_2.1.2.3 phases=3 conn=LL model=1 kV=0.4 Kw=5.761 kvar=0 daily=PC01_IndMin2024_30 Vminpu=0.9 Vmaxpu=1.1 
New "Load.300225" bus1=3806227_p_2.1.2.3 phases=3 conn=LL model=1 kV=0.4 Kw=22.008 kvar=0 daily=PC01_IndMin2024_30 Vminpu=0.9 Vmaxpu=1.1 
New "Load.300226" bus1=3833751_p_2.1.2.3 phases=3 conn=LL model=1 kV=0.4 Kw=1.037 kvar=0 daily=PC01_IndMin2024_30 Vminpu=0.9 Vmaxpu=1.1 
New "Load.300227" bus1=4002387_p_2.1.2.3 phases=3 conn=LL model=1 kV=0.4 Kw=5.185 kvar=0 daily=PC01_IndMin2024_30 Vminpu=0.9 Vmaxpu=1.1 
New "Load.300231" bus1=3807864_p_2.1.2.3 phases=3 conn=LL model=1 kV=0.4 Kw=202.806 kvar=0 daily=PC01_IndMin2024_30 Vminpu=0.9 Vmaxpu=1.1 
New "Load.300244" bus1=3823306_p_2.1.2.3 phases=3 conn=LL model=1 kV=0.4 Kw=45.285 kvar=0 daily=PC01_IndMin2024_30 Vminpu=0.9 Vmaxpu=1.1 
New "Load.300245" bus1=4002388_p_2.1.2.3 phases=3 conn=LL model=1 kV=0.4 Kw=1.498 kvar=0 daily=PC01_IndMin2024_30 Vminpu=0.9 Vmaxpu=1.1 
New "Load.300246" bus1=3808444_p_2.1.2.3 phases=3 conn=LL model=1 kV=0.4 Kw=11.753 kvar=0 daily=PC01_IndMin2024_30 Vminpu=0.9 Vmaxpu=1.1 
New "Load.300247" bus1=3808199_p_2.1.2.3 phases=3 conn=LL model=1 kV=0.4 Kw=109.238 kvar=0 daily=PC01_IndMin2024_30 Vminpu=0.9 Vmaxpu=1.1 
New "Load.301698" bus1=3812380_p_2.1.2.3 phases=3 conn=LL model=1 kV=0.4 Kw=0.0 kvar=0 daily=PC01_IndMin2024_30 Vminpu=0.9 Vmaxpu=1.1 
New "Load.301733" bus1=3747858_p_2.1.2.3 phases=3 conn=LL model=1 kV=0.4 Kw=0.0 kvar=0 daily=PC01_IndMin2024_30 Vminpu=0.9 Vmaxpu=1.1 
New "Load.301774" bus1=3832429_p_2.1.2.3 phases=3 conn=LL model=1 kV=0.4 Kw=24.312 kvar=0 daily=PC01_IndMin2024_30 Vminpu=0.9 Vmaxpu=1.1 
New "Load.301775" bus1=3813328_p_2.1.2.3 phases=3 conn=LL model=1 kV=0.4 Kw=56.0 kvar=0 daily=PC01_IndMin2024_30 Vminpu=0.9 Vmaxpu=1.1 
New "Load.301776" bus1=3813276_p_2.1.2.3 phases=3 conn=LL model=1 kV=0.4 Kw=38.946 kvar=0 daily=PC01_IndMin2024_30 Vminpu=0.9 Vmaxpu=1.1 
New "Load.301777" bus1=3810166_p_2.1.2.3 phases=3 conn=LL model=1 kV=0.4 Kw=13.942 kvar=0 daily=PC01_IndMin2024_30 Vminpu=0.9 Vmaxpu=1.1 
New "Load.301778" bus1=3813283_p_2.1.2.3 phases=3 conn=LL model=1 kV=0.4 Kw=36.987 kvar=0 daily=PC01_IndMin2024_30 Vminpu=0.9 Vmaxpu=1.1 
New "Load.301858" bus1=3829947_p_2.1.2.3 phases=3 conn=LL model=1 kV=0.4 Kw=22.354 kvar=0 daily=PC01_IndMin2024_30 Vminpu=0.9 Vmaxpu=1.1 
New "Load.301881" bus1=3844387_p_2.1.2.3 phases=3 conn=LL model=1 kV=0.4 Kw=2.995 kvar=0 daily=PC01_IndMin2024_30 Vminpu=0.9 Vmaxpu=1.1 
New "Load.301908" bus1=4002471_p_2.1.2.3 phases=3 conn=LL model=1 kV=0.4 Kw=0.0 kvar=0 daily=PC01_IndMin2024_30 Vminpu=0.9 Vmaxpu=1.1 
New "Load.301938" bus1=3747406_p_2.1.2.3 phases=3 conn=LL model=1 kV=0.4 Kw=88.151 kvar=0 daily=PC01_IndMin2024_30 Vminpu=0.9 Vmaxpu=1.1 
New "Load.302313" bus1=3817188_p_2.1.2.3 phases=3 conn=LL model=1 kV=0.4 Kw=6.222 kvar=0 daily=PC01_IndMin2024_30 Vminpu=0.9 Vmaxpu=1.1 
New "Load.302318" bus1=3832423_p_2.1.2.3 phases=3 conn=LL model=1 kV=0.4 Kw=5.185 kvar=0 daily=PC01_IndMin2024_30 Vminpu=0.9 Vmaxpu=1.1 
New "Load.302407" bus1=3817921_p_2.1.2.3 phases=3 conn=LL model=1 kV=0.4 Kw=109.354 kvar=0 daily=PC01_IndMin2024_30 Vminpu=0.9 Vmaxpu=1.1 
New "Load.302434" bus1=4002623_p_2.1.2.3 phases=3 conn=LL model=1 kV=0.4 Kw=0.0 kvar=0 daily=PC01_IndMin2024_30 Vminpu=0.9 Vmaxpu=1.1 
New "Load.302565" bus1=13602024_p_2.1.2.3 phases=3 conn=LL model=1 kV=0.4 Kw=10.025 kvar=0 daily=PC01_IndMin2024_30 Vminpu=0.9 Vmaxpu=1.1 
New "Load.302566" bus1=13981349_p_2.1.2.3 phases=3 conn=LL model=1 kV=0.4 Kw=0.0 kvar=0 daily=PC01_IndMin2024_30 Vminpu=0.9 Vmaxpu=1.1 
New "Load.302567" bus1=3819054_p_2.1.2.3 phases=3 conn=LL model=1 kV=0.4 Kw=0.0 kvar=0 daily=PC01_IndMin2024_30 Vminpu=0.9 Vmaxpu=1.1 
New "Load.302568" bus1=3819053_p_2.1.2.3 phases=3 conn=LL model=1 kV=0.4 Kw=31.687 kvar=0 daily=PC01_IndMin2024_30 Vminpu=0.9 Vmaxpu=1.1 
New "Load.302569" bus1=3819057_p_2.1.2.3 phases=3 conn=LL model=1 kV=0.4 Kw=4.493 kvar=0 daily=PC01_IndMin2024_30 Vminpu=0.9 Vmaxpu=1.1 
New "Load.302570" bus1=3832428_p_2.1.2.3 phases=3 conn=LL model=1 kV=0.4 Kw=2.419 kvar=0 daily=PC01_IndMin2024_30 Vminpu=0.9 Vmaxpu=1.1 
New "Load.302579" bus1=13981284_p_2.1.2.3 phases=3 conn=LL model=1 kV=0.4 Kw=0.0 kvar=0 daily=PC01_IndMin2024_30 Vminpu=0.9 Vmaxpu=1.1 
New "Load.302581" bus1=3819161_p_2.1.2.3 phases=3 conn=LL model=1 kV=0.4 Kw=41.483 kvar=0 daily=PC01_IndMin2024_30 Vminpu=0.9 Vmaxpu=1.1 
New "Load.302631" bus1=3819554_p_2.1.2.3 phases=3 conn=LL model=1 kV=0.4 Kw=6.913 kvar=0 daily=PC01_IndMin2024_30 Vminpu=0.9 Vmaxpu=1.1 
New "Load.302647" bus1=3819652_p_2.1.2.3 phases=3 conn=LL model=1 kV=0.4 Kw=97.024 kvar=0 daily=PC01_IndMin2024_30 Vminpu=0.9 Vmaxpu=1.1 
New "Load.302676" bus1=3819909_p_2.1.2.3 phases=3 conn=LL model=1 kV=0.4 Kw=30.189 kvar=0 daily=PC01_IndMin2024_30 Vminpu=0.9 Vmaxpu=1.1 
New "Load.302684" bus1=3819925_p_2.1.2.3 phases=3 conn=LL model=1 kV=0.4 Kw=28.115 kvar=0 daily=PC01_IndMin2024_30 Vminpu=0.9 Vmaxpu=1.1 
New "Load.302866" bus1=3821714_p_2.1.2.3 phases=3 conn=LL model=1 kV=0.4 Kw=0.0 kvar=0 daily=PC01_IndMin2024_30 Vminpu=0.9 Vmaxpu=1.1 
New "Load.302871" bus1=3821745_p_2.1.2.3 phases=3 conn=LL model=1 kV=0.4 Kw=52.774 kvar=0 daily=PC01_IndMin2024_30 Vminpu=0.9 Vmaxpu=1.1 
New "Load.302943" bus1=3822157_p_2.1.2.3 phases=3 conn=LL model=1 kV=0.4 Kw=200.268 kvar=0 daily=PC01_IndMin2024_30 Vminpu=0.9 Vmaxpu=1.1 
New "Load.303004" bus1=3843802_p_2.1.2.3 phases=3 conn=LL model=1 kV=0.4 Kw=13.366 kvar=0 daily=PC01_IndMin2024_30 Vminpu=0.9 Vmaxpu=1.1 
New "Load.303005" bus1=3822777_p_2.1.2.3 phases=3 conn=LL model=1 kV=0.4 Kw=0.0 kvar=0 daily=PC01_IndMin2024_30 Vminpu=0.9 Vmaxpu=1.1 
New "Load.303009" bus1=4002761_p_2.1.2.3 phases=3 conn=LL model=1 kV=0.4 Kw=0.0 kvar=0 daily=PC01_IndMin2024_30 Vminpu=0.9 Vmaxpu=1.1 
New "Load.303079" bus1=3823305_p_2.1.2.3 phases=3 conn=LL model=1 kV=0.4 Kw=143.231 kvar=0 daily=PC01_IndMin2024_30 Vminpu=0.9 Vmaxpu=1.1 
New "Load.303083" bus1=3823327_p_2.1.2.3 phases=3 conn=LL model=1 kV=0.4 Kw=53.121 kvar=0 daily=PC01_IndMin2024_30 Vminpu=0.9 Vmaxpu=1.1 
New "Load.303092" bus1=3823362_p_2.1.2.3 phases=3 conn=LL model=1 kV=0.4 Kw=22.469 kvar=0 daily=PC01_IndMin2024_30 Vminpu=0.9 Vmaxpu=1.1 
New "Load.303131" bus1=3823641_p_2.1.2.3 phases=3 conn=LL model=1 kV=0.4 Kw=75.244 kvar=0 daily=PC01_IndMin2024_30 Vminpu=0.9 Vmaxpu=1.1 
New "Load.303193" bus1=3824296_p_2.1.2.3 phases=3 conn=LL model=1 kV=0.4 Kw=0.0 kvar=0 daily=PC01_IndMin2024_30 Vminpu=0.9 Vmaxpu=1.1 
New "Load.303316" bus1=3825272_p_2.1.2.3 phases=3 conn=LL model=1 kV=0.4 Kw=2.65 kvar=0 daily=PC01_IndMin2024_30 Vminpu=0.9 Vmaxpu=1.1 
New "Load.303731" bus1=3843796_p_2.1.2.3 phases=3 conn=LL model=1 kV=0.4 Kw=20.625 kvar=0 daily=PC01_IndMin2024_30 Vminpu=0.9 Vmaxpu=1.1 
New "Load.303919" bus1=3829951_p_2.1.2.3 phases=3 conn=LL model=1 kV=0.4 Kw=0.0 kvar=0 daily=PC01_IndMin2024_30 Vminpu=0.9 Vmaxpu=1.1 
New "Load.304007" bus1=3830690_p_2.1.2.3 phases=3 conn=LL model=1 kV=0.4 Kw=29.383 kvar=0 daily=PC01_IndMin2024_30 Vminpu=0.9 Vmaxpu=1.1 
New "Load.304122" bus1=3843811_p_2.1.2.3 phases=3 conn=LL model=1 kV=0.4 Kw=0.691 kvar=0 daily=PC01_IndMin2024_30 Vminpu=0.9 Vmaxpu=1.1 
New "Load.304123" bus1=3831406_p_2.1.2.3 phases=3 conn=LL model=1 kV=0.4 Kw=0.0 kvar=0 daily=PC01_IndMin2024_30 Vminpu=0.9 Vmaxpu=1.1 
New "Load.304124" bus1=3831409_p_2.1.2.3 phases=3 conn=LL model=1 kV=0.4 Kw=0.0 kvar=0 daily=PC01_IndMin2024_30 Vminpu=0.9 Vmaxpu=1.1 
New "Load.304264" bus1=3832353_p_2.1.2.3 phases=3 conn=LL model=1 kV=0.4 Kw=46.438 kvar=0 daily=PC01_IndMin2024_30 Vminpu=0.9 Vmaxpu=1.1 
New "Load.304431" bus1=3833742_p_2.1.2.3 phases=3 conn=LL model=1 kV=0.4 Kw=11.753 kvar=0 daily=PC01_IndMin2024_30 Vminpu=0.9 Vmaxpu=1.1 
New "Load.304433" bus1=3833749_p_2.1.2.3 phases=3 conn=LL model=1 kV=0.4 Kw=34.107 kvar=0 daily=PC01_IndMin2024_30 Vminpu=0.9 Vmaxpu=1.1 
New "Load.304434" bus1=3833769_p_2.1.2.3 phases=3 conn=LL model=1 kV=0.4 Kw=51.852 kvar=0 daily=PC01_IndMin2024_30 Vminpu=0.9 Vmaxpu=1.1 
New "Load.304451" bus1=3833877_p_2.1.2.3 phases=3 conn=LL model=1 kV=0.4 Kw=554.94 kvar=0 daily=PC01_IndMin2024_30 Vminpu=0.9 Vmaxpu=1.1 
New "Load.304491" bus1=3834146_p_2.1.2.3 phases=3 conn=LL model=1 kV=0.4 Kw=97.598 kvar=0 daily=PC01_IndMin2024_30 Vminpu=0.9 Vmaxpu=1.1 
New "Load.304492" bus1=3834151_p_2.1.2.3 phases=3 conn=LL model=1 kV=0.4 Kw=2.995 kvar=0 daily=PC01_IndMin2024_30 Vminpu=0.9 Vmaxpu=1.1 
New "Load.304554" bus1=3834761_p_2.1.2.3 phases=3 conn=LL model=1 kV=0.4 Kw=21.086 kvar=0 daily=PC01_IndMin2024_30 Vminpu=0.9 Vmaxpu=1.1 
New "Load.304601" bus1=3835138_p_2.1.2.3 phases=3 conn=LL model=1 kV=0.4 Kw=129.286 kvar=0 daily=PC01_IndMin2024_30 Vminpu=0.9 Vmaxpu=1.1 
New "Load.304632" bus1=3835272_p_2.1.2.3 phases=3 conn=LL model=1 kV=0.4 Kw=261.573 kvar=0 daily=PC01_IndMin2024_30 Vminpu=0.9 Vmaxpu=1.1 
New "Load.304766" bus1=3836499_p_2.1.2.3 phases=3 conn=LL model=1 kV=0.4 Kw=13.251 kvar=0 daily=PC01_IndMin2024_30 Vminpu=0.9 Vmaxpu=1.1 
New "Load.304815" bus1=3836995_p_2.1.2.3 phases=3 conn=LL model=1 kV=0.4 Kw=43.44 kvar=0 daily=PC01_IndMin2024_30 Vminpu=0.9 Vmaxpu=1.1 
New "Load.304884" bus1=3837609_p_2.1.2.3 phases=3 conn=LL model=1 kV=0.4 Kw=46.436 kvar=0 daily=PC01_IndMin2024_30 Vminpu=0.9 Vmaxpu=1.1 
New "Load.304908" bus1=3837992_p_2.1.2.3 phases=3 conn=LL model=1 kV=0.4 Kw=0.0 kvar=0 daily=PC01_IndMin2024_30 Vminpu=0.9 Vmaxpu=1.1 
New "Load.304909" bus1=3837995_p_2.1.2.3 phases=3 conn=LL model=1 kV=0.4 Kw=2.419 kvar=0 daily=PC01_IndMin2024_30 Vminpu=0.9 Vmaxpu=1.1 
New "Load.305208" bus1=3998784_p_2.1.2.3 phases=3 conn=LL model=1 kV=0.4 Kw=2.995 kvar=0 daily=PC01_IndMin2024_30 Vminpu=0.9 Vmaxpu=1.1 
New "Load.305246" bus1=3999222_p_2.1.2.3 phases=3 conn=LL model=1 kV=0.4 Kw=0.0 kvar=0 daily=PC01_IndMin2024_30 Vminpu=0.9 Vmaxpu=1.1 
New "Load.314027" bus1=3995136_p_2.1.2.3 phases=3 conn=LL model=1 kV=0.4 Kw=0.0 kvar=0 daily=PC01_IndMin2024_30 Vminpu=0.9 Vmaxpu=1.1 
New "Load.314088" bus1=3997578_p_2.1.2.3 phases=3 conn=LL model=1 kV=0.4 Kw=7.259 kvar=0 daily=PC01_IndMin2024_30 Vminpu=0.9 Vmaxpu=1.1 
New "Load.314200" bus1=14016095_p_2.1.2.3 phases=3 conn=LL model=1 kV=0.4 Kw=24.889 kvar=0 daily=PC01_IndMin2024_30 Vminpu=0.9 Vmaxpu=1.1 
New "Load.314201" bus1=14016261_p_2.1.2.3 phases=3 conn=LL model=1 kV=0.4 Kw=25.234 kvar=0 daily=PC01_IndMin2024_30 Vminpu=0.9 Vmaxpu=1.1 
New "Load.314320" bus1=16370837_p_2.1.2.3 phases=3 conn=LL model=1 kV=0.4 Kw=13.596 kvar=0 daily=PC01_IndMin2024_30 Vminpu=0.9 Vmaxpu=1.1 
New "Load.314323" bus1=3832397_p_2.1.2.3 phases=3 conn=LL model=1 kV=0.4 Kw=0.0 kvar=0 daily=PC01_IndMin2024_30 Vminpu=0.9 Vmaxpu=1.1 
New "Load.323119" bus1=3806352_p_2.1.2.3 phases=3 conn=LL model=1 kV=0.4 Kw=6.452 kvar=0 daily=PC01_IndMin2024_30 Vminpu=0.9 Vmaxpu=1.1 
New "Load.323409" bus1=3805129_p_2.1.2.3 phases=3 conn=LL model=1 kV=0.4 Kw=0.46 kvar=0 daily=PC01_IndMin2024_30 Vminpu=0.9 Vmaxpu=1.1 
New "Load.323482" bus1=3805226_p_2.1.2.3 phases=3 conn=LL model=1 kV=0.4 Kw=0.0 kvar=0 daily=PC01_IndMin2024_30 Vminpu=0.9 Vmaxpu=1.1 
New "Load.323501" bus1=3819344_p_2.1.2.3 phases=3 conn=LL model=1 kV=0.4 Kw=27.078 kvar=0 daily=PC01_IndMin2024_30 Vminpu=0.9 Vmaxpu=1.1 
New "Load.327897" bus1=3827627_p_2.1.2.3 phases=3 conn=LL model=1 kV=0.4 Kw=693.112 kvar=0 daily=PC01_IndMin2024_30 Vminpu=0.9 Vmaxpu=1.1 
